InputData/caseT5D18.m
function mpc = caseT5D18

%% MATPOWER Case Format : Version 2
mpc.version = '2';

%%-----  Power Flow Data  -----%%
%% system MVA base
mpc.baseMVA = 100;

%% bus data
%	bus_i	type	Pd	Qd	Gs	Bs	area	Vm	Va	baseKV	zone	Vmax	Vmin
mpc.bus = [
	1       2	0	0	0	0	1	1	0	230	1	1.1	0.9;
	2       1	300	98.61	0	0	1	1	0	230	1	1.1	0.9;
	3       2	300	98.61	0	0	1	1	0	230	1	1.1	0.9;
	4       3	400	131.47	0	0	1	1	0	230	1	1.1	0.9;
	5       2	0	0	0	0	1	1	0	230	1	1.1	0.9;
	1001	2	0	0	0	0	1000	1	0	12.5	1	1.1	0.9;
	1002	1	0	0	0	1.2	1000	1	0	12.5	1	1.1	0.9;
	1003	1	0	0	0	0	1000	1	0	12.5	1	1.1	0.9;
	1004	1	1	0.6	0	1.05	1000	1	0	12.5	1	1.1	0.9;
	1005	1	2	1.25	0	0.6	1000	1	0	12.5	1	1.1	0.9;
	1006	1	7.5	4.65	0	0.6	1000	1	0	12.5	1	1.1	0.9;
	1007	1	15	11.3	0	1.8	1000	1	0	12.5	1	1.1	0.9;
	1008	1	4	2.5	0	0	1000	1	0	12.5	1	1.1	0.9;
	1009	1	1	0.6	0	0.6	1000	1	0	12.5	1	1.1	0.9;
	1010	1	5	3.1	0	0	1000	1	0	12.5	1	1.1	0.9;
	1011	1	2.5	1.55	0	0	1000	1	0	12.5	1	1.1	0.9;
	1012	1	5	3.1	0	0.6	1000	1	0	12.5	1	1.1	0.9;
	1013	1	1.5	0.95	0	1.2	1000	1	0	12.5	1	1.1	0.9;
	1014	1	1	0.6	0	0	1000	1	0	12.5	1	1.1	0.9;
	1015	1	4	2.5	0	0	1000	1	0	12.5	1	1.1	0.9;
	1016	1	2.5	1.55	0	1.5	1000	1	0	12.5	1	1.1	0.9;
	1017	1	5	3.1	0	0.9	1000	1	0	12.5	1	1.1	0.9;
	1018	1	1	0.6	0	0	1000	1	0	12.5	1	1.1	0.9;
	2001	2	0	0	0	0	2000	1	0	12.5	1	1.1	0.9;
	2002	1	0	0	0	1.2	2000	1	0	12.5	1	1.1	0.9;
	2003	1	0	0	0	0	2000	1	0	12.5	1	1.1	0.9;
	2004	1	0.7	0.6	0	1.05	2000	1	0	12.5	1	1.1	0.9;
	2005	1	1.4	1.25	0	0.6	2000	1	0	12.5	1	1.1	0.9;
	2006	1	5.25	4.65	0	0.6	2000	1	0	12.5	1	1.1	0.9;
	2007	1	10.5	11.3	0	1.8	2000	1	0	12.5	1	1.1	0.9;
	2008	1	2.8	2.5	0	0	2000	1	0	12.5	1	1.1	0.9;
	2009	1	0.7	0.6	0	0.6	2000	1	0	12.5	1	1.1	0.9;
	2010	1	3.5	3.1	0	0	2000	1	0	12.5	1	1.1	0.9;
	2011	1	1.75	1.55	0	0	2000	1	0	12.5	1	1.1	0.9;
	2012	1	3.5	3.1	0	0.6	2000	1	0	12.5	1	1.1	0.9;
	2013	1	1.05	0.95	0	1.2	2000	1	0	12.5	1	1.1	0.9;
	2014	1	0.7	0.6	0	0	2000	1	0	12.5	1	1.1	0.9;
	2015	1	2.8	2.5	0	0	2000	1	0	12.5	1	1.1	0.9;
	2016	1	1.75	1.55	0	1.5	2000	1	0	12.5	1	1.1	0.9;
	2017	1	3.5	3.1	0	0.9	2000	1	0	12.5	1	1.1	0.9;
	2018	1	0.7	0.6	0	0	2000	1	0	12.5	1	1.1	0.9;
];

%% generator data
%	bus	Pg	Qg	Qmax	Qmin	Vg	mBase	status	Pmax	Pmin	Pc1	Pc2	Qc1min	Qc1max	Qc2min	Qc2max	ramp_agc	ramp_10	ramp_30	ramp_q	apf
mpc.gen = [
	1   	0	0	30      -30     1	100	1	40	0	0	0	0	0	0	0	0	0	0	0	0;
	1       0	0	127.5	-127.5	1	100	1	170	0	0	0	0	0	0	0	0	0	0	0	0;
	3       0	0	390     -390	1	100	1	520	0	0	0	0	0	0	0	0	0	0	0	0;
	4       0	0	150     -150	1	100	1	200	0	0	0	0	0	0	0	0	0	0	0	0;
	5       0	0	450     -450	1	100	1	600	0	0	0	0	0	0	0	0	0	0	0	0;
	4       0	0	20      -20     1	100	1	20	0	0	0	0	0	0	0	0	0	0	0	0;
	1006    0	0	5       -5      1	100	1	5	0	0	0	0	0	0	0	0	0	0	0	0;
	2014    0	0	5       -5      1	100	1	5	0	0	0	0	0	0	0	0	0	0	0	0;
];

%% branch data
%	fbus	tbus	r	x	b	rateA	rateB	rateC	ratio	angle	status	angmin	angmax
mpc.branch = [
	1       2	0.00281	0.0281	0.00712	400	0	0	0	0	1	-360	360;
	1       4	0.00304	0.0304	0.00658	400	0	0	0	0	1	-360	360;
	1       5	0.00064	0.0064	0.03126	400	0	0	0	0	1	-360	360;
	2       3	0.00108	0.0108	0.01852	400	0	0	0	0	1	-360	360;
	3       4	0.00297	0.0297	0.00674	400	0	0	0	0	1	-360	360;
	4       5	0.00297	0.0297	0.00674	400	0	0	0	0	1	-360	360;
	2       1001	0	0.5	0	400	0	0	0.98	0	1	-360	360;
	1001	1002	0.004998	0.035398	0	100	0	0	0	0	1	-360	360;
	1002	1003	0.0312	0.675302	0	100	0	0	0	0	1	-360	360;
	1003	1004	0.043098	0.120403	0.035	60	0	0	0	0	1	-360	360;
	1004	1005	0.060102	0.167699	0.049	60	0	0	0	0	1	-360	360;
	1005	1006	0.031603	0.088198	0.026	60	0	0	0	0	1	-360	360;
	1006	1007	0.0896	0.250202	0.073	60	0	0	0	0	1	-360	360;
	1007	1008	0.029498	0.0824	0.024	11	0	0	0	0	1	-360	360;
	1008	1009	0.172	0.212	0.046	11	0	0	0	0	1	-360	360;
	1009	1010	0.407002	0.305299	0.051	11	0	0	0	0	1	-360	360;
	1004	1011	0.170598	0.220902	0.043	11	0	0	0	0	1	-360	360;
	1003	1012	0.291002	0.3768	0.074	60	0	0	0	0	1	-360	360;
	1012	1013	0.222202	0.287699	0.056	60	0	0	0	0	1	-360	360;
	1013	1014	0.480301	0.621798	0.122	11	0	0	0	0	1	-360	360;
	1013	1015	0.398502	0.516	0.101	11	0	0	0	0	1	-360	360;
	1015	1016	0.291002	0.3768	0.074	11	0	0	0	0	1	-360	360;
	1015	1017	0.372698	0.459302	0.1	11	0	0	0	0	1	-360	360;
	1017	1018	0.1104	0.136	0.118	11	0	0	0	0	1	-360	360;
	5       2001	0	0.5	0	400	0	0	0.98	0	1	-360	360;
	2001	2002	0.004998	0.035398	0	100	0	0	0	0	1	-360	360;
	2002	2003	0.0312	0.675302	0	100	0	0	0	0	1	-360	360;
	2003	2004	0.043098	0.120403	0.035	60	0	0	0	0	1	-360	360;
	2004	2005	0.060102	0.167699	0.049	60	0	0	0	0	1	-360	360;
	2005	2006	0.031603	0.088198	0.026	60	0	0	0	0	1	-360	360;
	2006	2007	0.0896	0.250202	0.073	60	0	0	0	0	1	-360	360;
	2007	2008	0.029498	0.0824	0.024	11	0	0	0	0	1	-360	360;
	2008	2009	0.172	0.212	0.046	11	0	0	0	0	1	-360	360;
	2009	2010	0.407002	0.305299	0.051	11	0	0	0	0	1	-360	360;
	2004	2011	0.170598	0.220902	0.043	11	0	0	0	0	1	-360	360;
	2003	2012	0.291002	0.3768	0.074	60	0	0	0	0	1	-360	360;
	2012	2013	0.222202	0.287699	0.056	60	0	0	0	0	1	-360	360;
	2013	2014	0.480301	0.621798	0.122	11	0	0	0	0	1	-360	360;
	2013	2015	0.398502	0.516	0.101	11	0	0	0	0	1	-360	360;
	2015	2016	0.291002	0.3768	0.074	11	0	0	0	0	1	-360	360;
	2015	2017	0.372698	0.459302	0.1	11	0	0	0	0	1	-360	360;
	2017	2018	0.1104	0.136	0.118	11	0	0	0	0	1	-360	360;
];

%%-----  OPF Data  -----%%
%% generator cost data
%	1	startup	shutdown	n	x1	y1	...	xn	yn
%	2	startup	shutdown	n	c(n-1)	...	c0
mpc.gencost = [
	2	0	0	2	14	0;
	2	0	0	2	15	0;
	2	0	0	2	30	0;
	2	0	0	2	40	0;
	2	0	0	2	10	0;
	2	0	0	2	0	0;
	2	0	0	2	0	0;
	2	0	0	2	0	0;
    
];
